
     RDKit          3D

 50 54  0  0  0  0  0  0  0  0999 V2000
    3.8129    1.5265    0.9334 F   0  0  0  0  0  0  0  0  0  0  0  0
    2.7799    0.6656    0.8951 C   0  0  1  0  0  0  0  0  0  0  0  0
    1.8536    1.1313    1.7603 F   0  0  0  0  0  0  0  0  0  0  0  0
    2.2322    0.7429   -0.3320 F   0  0  0  0  0  0  0  0  0  0  0  0
    3.2016   -0.7382    1.2324 C   0  0  0  0  0  0  0  0  0  0  0  0
    4.3185   -0.9698    2.0506 C   0  0  0  0  0  0  0  0  0  0  0  0
    4.6742   -2.2624    2.4070 C   0  0  0  0  0  0  0  0  0  0  0  0
    3.9202   -3.3965    1.9595 C   0  0  0  0  0  0  0  0  0  0  0  0
    4.2599   -4.7404    2.3249 C   0  0  0  0  0  0  0  0  0  0  0  0
    5.3783   -5.0557    3.1755 C   0  0  0  0  0  0  0  0  0  0  0  0
    5.6214   -6.4215    3.4186 C   0  0  0  0  0  0  0  0  0  0  0  0
    6.6667   -6.9426    4.2398 C   0  0  0  0  0  0  0  0  0  0  0  0
    6.8132   -8.3072    4.3868 C   0  0  0  0  0  0  0  0  0  0  0  0
    5.9265   -9.2039    3.7248 C   0  0  0  0  0  0  0  0  0  0  0  0
    4.8928   -8.7202    2.9199 C   0  0  0  0  0  0  0  0  0  0  0  0
    4.7038   -7.3445    2.7420 C   0  0  0  0  0  0  0  0  0  0  0  0
    3.4252   -6.3570    1.7882 Si  0  0  1  0  0  4  0  0  0  0  0  0
    1.6449   -6.5456    2.4197 C   0  0  0  0  0  0  0  0  0  0  0  0
    1.1234   -5.6721    3.3948 C   0  0  0  0  0  0  0  0  0  0  0  0
   -0.1566   -5.8571    3.9249 C   0  0  0  0  0  0  0  0  0  0  0  0
   -0.9427   -6.9328    3.4995 C   0  0  0  0  0  0  0  0  0  0  0  0
   -0.4426   -7.8175    2.5387 C   0  0  0  0  0  0  0  0  0  0  0  0
    0.8339   -7.6221    2.0037 C   0  0  0  0  0  0  0  0  0  0  0  0
    3.4593   -6.7192   -0.0770 C   0  0  0  0  0  0  0  0  0  0  0  0
    4.6495   -7.1805   -0.6752 C   0  0  0  0  0  0  0  0  0  0  0  0
    4.7307   -7.4064   -2.0520 C   0  0  0  0  0  0  0  0  0  0  0  0
    3.6200   -7.1658   -2.8672 C   0  0  0  0  0  0  0  0  0  0  0  0
    2.4293   -6.7051   -2.2966 C   0  0  0  0  0  0  0  0  0  0  0  0
    2.3514   -6.4888   -0.9173 C   0  0  0  0  0  0  0  0  0  0  0  0
    2.7965   -3.1237    1.1192 C   0  0  0  0  0  0  0  0  0  0  0  0
    2.4447   -1.8327    0.7664 C   0  0  0  0  0  0  0  0  0  0  0  0
    4.9137   -0.1247    2.4020 H   0  0  0  0  0  0  0  0  0  0  0  0
    5.5504   -2.4088    3.0392 H   0  0  0  0  0  0  0  0  0  0  0  0
    6.0168   -4.2938    3.6290 H   0  0  0  0  0  0  0  0  0  0  0  0
    7.3462   -6.2512    4.7465 H   0  0  0  0  0  0  0  0  0  0  0  0
    7.6128   -8.7084    5.0144 H   0  0  0  0  0  0  0  0  0  0  0  0
    6.0594  -10.2814    3.8537 H   0  0  0  0  0  0  0  0  0  0  0  0
    4.2250   -9.4334    2.4271 H   0  0  0  0  0  0  0  0  0  0  0  0
    1.7289   -4.8317    3.7473 H   0  0  0  0  0  0  0  0  0  0  0  0
   -0.5414   -5.1604    4.6747 H   0  0  0  0  0  0  0  0  0  0  0  0
   -1.9423   -7.0820    3.9163 H   0  0  0  0  0  0  0  0  0  0  0  0
   -1.0515   -8.6610    2.2015 H   0  0  0  0  0  0  0  0  0  0  0  0
    1.2004   -8.3203    1.2449 H   0  0  0  0  0  0  0  0  0  0  0  0
    5.5289   -7.3675   -0.0513 H   0  0  0  0  0  0  0  0  0  0  0  0
    5.6641   -7.7689   -2.4913 H   0  0  0  0  0  0  0  0  0  0  0  0
    3.6820   -7.3374   -3.9452 H   0  0  0  0  0  0  0  0  0  0  0  0
    1.5564   -6.5178   -2.9279 H   0  0  0  0  0  0  0  0  0  0  0  0
    1.4054   -6.1432   -0.4898 H   0  0  0  0  0  0  0  0  0  0  0  0
    2.2004   -3.9569    0.7425 H   0  0  0  0  0  0  0  0  0  0  0  0
    1.5833   -1.6586    0.1188 H   0  0  0  0  0  0  0  0  0  0  0  0
  2  1  1  6
  2  3  1  0
  2  4  1  0
  2  5  1  0
  5  6  2  0
  5 31  1  0
  6  7  1  0
  6 32  1  0
  7  8  2  0
  7 33  1  0
  8  9  1  0
  8 30  1  0
  9 10  2  0
  9 17  1  0
 10 11  1  0
 10 34  1  0
 11 12  1  0
 11 16  2  0
 12 13  2  0
 12 35  1  0
 13 14  1  0
 13 36  1  0
 14 15  2  0
 14 37  1  0
 15 16  1  0
 15 38  1  0
 16 17  1  0
 17 18  1  1
 17 24  1  0
 18 19  2  0
 18 23  1  0
 19 20  1  0
 19 39  1  0
 20 21  2  0
 20 40  1  0
 21 22  1  0
 21 41  1  0
 22 23  2  0
 22 42  1  0
 23 43  1  0
 24 25  2  0
 24 29  1  0
 25 26  1  0
 25 44  1  0
 26 27  2  0
 26 45  1  0
 27 28  1  0
 27 46  1  0
 28 29  2  0
 28 47  1  0
 29 48  1  0
 30 31  2  0
 30 49  1  0
 31 50  1  0
M  END

